/batch
/config,noeldb,1     ! force off writing results to database
*get,_wallstrt,active,,time,wall
! ANSYS input file written by Workbench version 2026 R1
! File used for geometry attach: C:\Users\aparr\Documents\ansys-digital-twin\AGARD_445_6_files\dp0\SYS\DM\SYS.agdb
/title,AGARD_445_6--Modal (A5)
! ****** Begin Custom Load Command Snippet ******
/COM, ACT Extensions:
/COM,     LSDYNA, 2026.1
/COM,     5f463412-bd3e-484b-87e7-cbc0a665e474, wbex
/COM,     ANSYSMotion, 2026.1
/COM,     20180725-3f81-49eb-9f31-41364844c769, wbex
! ****** End   Custom Load Command Snippet ******
*DIM,_wb_ProjectScratch_dir,string,248
_wb_ProjectScratch_dir(1) = 'C:\Users\aparr\Documents\ansys-digital-twin\_ProjectScratch\Scr4975\'
*DIM,_wb_SolverFiles_dir,string,248
_wb_SolverFiles_dir(1) = 'C:\Users\aparr\Documents\ansys-digital-twin\AGARD_445_6_files\dp0\SYS\MECH\'
*DIM,_wb_userfiles_dir,string,248
_wb_userfiles_dir(1) = 'C:\Users\aparr\Documents\ansys-digital-twin\AGARD_445_6_files\user_files\'
/com,--- Data in consistent MKS units. See Solving Units in the help system for more information.
/units,MKS
/nopr
/wb,file,start              !  signify a WB generated input file
/prep7
! Turn off shape checking because checks already performed inside WB mesher.
! See help system for more information.
SHPP,OFF,,NOWARN
/nolist
etcon,set             ! allow ANSYS to choose best KEYOP's for 180x elements, resets any applicable keyopt to MAPDL defaults
/com,*********** Send User Defined Coordinate System(s) ***********
csys,0
/com,*********** Nodes for the whole assembly ***********
nblock,3,,102
(1i9,3e20.9e3)
        1     6.467076923E-01     1.172307692E-01     0.000000000E+00
        2     5.936636362E-01     1.701364291E-01     0.000000000E+00
        3     6.394226940E-01     2.266449151E-01     0.000000000E+00
        4     6.906615385E-01     1.758461538E-01     0.000000000E+00
        5     7.346153846E-01     2.344615385E-01     0.000000000E+00
        6     4.889500000E-01     0.000000000E+00     0.000000000E+00
        7     9.042540260E-01     7.116256031E-01     0.000000000E+00
        8     9.124037824E-01     6.674974270E-01     0.000000000E+00
        9     8.541163186E-01     6.350751981E-01     0.000000000E+00
       10     8.493190557E-01     6.985264508E-01     0.000000000E+00
       11     2.794000000E-01     0.000000000E+00     0.000000000E+00
       12     2.712622882E-01     7.319780376E-02     0.000000000E+00
       13     3.476233382E-01     7.330499177E-02     0.000000000E+00
       14     3.492500000E-01     0.000000000E+00     0.000000000E+00
       15     4.191000000E-01     0.000000000E+00     0.000000000E+00
       16     1.524000000E-01     1.524000000E-01     0.000000000E+00
       17     1.989011773E-01     8.334360369E-02     0.000000000E+00
       18     0.000000000E+00     0.000000000E+00     0.000000000E+00
       19     2.095500000E-01     0.000000000E+00     0.000000000E+00
       20     3.485966296E-01     2.361229171E-01     0.000000000E+00
! ... 74 like lines cut
/wb,elem,start            !  set before creation of elements
/com,*********** Elements for Body 1 'Surface Body' ***********
et,1,181
keyo,1,1,0          ! bending and membrane stiffness
keyo,1,3,2
MAT,1 $ TYPE,1 $ REAL,1 $ SECNUM,1 $ ESYS,0    ! ELEMNODES = 4
eblock,21,COMPACT,,75
(21i9)
       11       84       83       85       85
       20       10       36        9        9
       27       93       92       82       82
       46       24       17       12       12
       49       59       23       24       24
       55       52       47       75       75
       74        7        8       54       54
        1       93        2       42       88
        2       82        1        2       93
        3        8        9       66       58
        4        1        4        3        2
        5        2        3       43       42
        6       87       78       79       86
        7       81       80       37       36
        8        3       68       44       43
        9       68       69       73       44
       10        4        5       68        3
       12       26       27       46       45
       13       15        6       92       91
       14        8        7       10        9
! ... 56 like lines cut
secnum,1    ! reset the section ID to default
! Material Id = {02CAFF0F-BD96-40E9-905A-277554308C54}
/wb,elem,end               !  done creating elements
toffst,273.15,      ! Temperature offset from absolute zero
/com,*********** Set Reference Temperature ***********
tref,22.
/wb,mat,start              !  starting to send materials
/com,*********** Send Materials ***********
MP,DENS,1,2780,	! kg m^-3
MP,EX,1,73100000000,	! Pa
MP,NUXY,1,0.33,
MP,UVID,1,64231977-c133-4336-a30c-cd1a0bed8f22

/wb,mat,end                !  done sending materials
/com,*********** Send Sheet Properties ***********
sectype,1,shell
secdata,1.e-002
secoff,mid

!************************* Model Summary ********************
! Surface Body,	Aluminio 2024 - T3,	matid,	1
!************************* End Model Summary ********************
! get the diagonal of the bounding box. Needed later for other things
*get,_xmin,node,,mnloc,x
*get,_ymin,node,,mnloc,y
*get,_zmin,node,,mnloc,z
*get,_xmax,node,,mxloc,x
*get,_ymax,node,,mxloc,y
*get,_zmax,node,,mxloc,z
_ASMDIAG=(_xmax-_xmin)*(_xmax-_xmin)+(_ymax-_ymin)*(_ymax-_ymin)+(_zmax-_zmin)*(_zmax-_zmin)
_ASMDIAG=SQRT(_ASMDIAG)
/wb,contact,start          !  starting to send contact
/wb,contact,end            !  done creating contacts
/com,*********** Send Named Selection as Node Component ***********
CMBLOCK,FORCE_INPUT,NODE,        1
(8i10)
        81
CMBLOCK,SENSOR_1,NODE,        1
(8i10)
        76
CMBLOCK,SENSOR_2,NODE,        1
(8i10)
        13
CMBLOCK,SENSOR_3,NODE,        1
(8i10)
        82
/golist
/wb,load,start             !  starting to send loads
/com,*********** Fixed Supports ***********
CMBLOCK,_FIXEDSU,NODE,        9
(8i10)
         6        11        14        15        18        19        51        78
        79
cmsel,s,_FIXEDSU
d,all,all
nsel,all
/gst,on,on
fini
*get,_numnode,node,0,count
*get,_numelem,elem,0,count
*get, _MAXELEMNUM, elem, 0, NUM, MAX
*get, _MAXNODENUM, node, 0, NUM, MAX
*get, _MAXELEMTYPE, etyp, 0, NUM, MAX
*get, _MAXREALCONST, rcon, 0, NUM, MAX
/go
/wb,load,end               !  done creating loads
/com,--- Number of total nodes = %_numnode%
/com,--- Number of contact elements = 0
/com,--- Number of spring elements = 0
/com,--- Number of bearing elements = 0
/com,--- Number of solid elements = 75
/com,--- Number of condensed parts = 0
/com,--- Number of total elements = %_numelem%
*get,_wallbsol,active,,time,wall
/solu
antype,2                   ! modal analysis
_thickRatio=  0     ! Ratio of thick parts in the model
thexpand,off     ! ignore thermal strains
modopt,lanb,20
outres,erase
outres,all,none
outres,nsol,all
mxpand,,,,,,,       ! default expand in case of complex solution
dmpopt,esav,no
dmpopt,emat,no
dmpopt,full,no
! *********** WB SOLVE COMMAND ***********
! check interactive state
*get,ANSINTER_,active,,int
*if,ANSINTER_,ne,0,then
/eof
*endif
solve
/com *************** Write FE CONNECTORS ********* 
CEWRITE,file,ce,,INTE
*get,_nmodalsolproc,active,0,numcpu
fini
/nopr
*get,_numnode,node,0,count
*get,_numelem,elem,0,count
*get, _MAXELEMNUM, elem, 0, NUM, MAX
*get, _MAXNODENUM, node, 0, NUM, MAX,,,INTERNAL
*get, _MAXELEMTYPE, etyp, 0, NUM, MAX
*get, _MAXREALCONST, rcon, 0, NUM, MAX
*get,_NSOLTHREADS,active,0,ntfs
*get,_NSOLPROCESSES,active,0,npfs
/gopr
*get,_wallasol,active,,time,wall
/post1
/nopr
*dim,_direction,CHAR,6,1
_direction(1) = 'X'
_direction(2) = 'Y'
_direction(3) = 'Z'
_direction(4) = 'ROTX'
_direction(5) = 'ROTY'
_direction(6) = 'ROTZ'
*get,_lastLS,active,0,set,LSTP
*get,_beginset,active,0,set,nset,first,_lastLS
*get,_endset,active,0,set,nset,last,_lastLS
_nummodes = 0
*if,_endset,gt,0,then
_nummodes = _endset - _beginset + 1
*endif
*do,i_mode,1,_nummodes
   *do,j_component,1,6
			*get,PFACT_%i_mode%_%j_component%,MODE,%i_mode%,PFACT,,DIREC,_direction(%j_component%)
   *enddo
*enddo
*dim,_tmdirection,CHAR,6,1
_tmdirection(1) = 'X'
_tmdirection(2) = 'Y'
_tmdirection(3) = 'Z'
_tmdirection(4) = 'X'
_tmdirection(5) = 'Y'
_tmdirection(6) = 'Z'
*do,j_component,1,6
    *if,j_component,gt,3,then
        *get,TOTALMASS_%j_component%,ELEM,0,IOR,_tmdirection(%j_component%)
    *else
        *get,TOTALMASS_%j_component%,ELEM,0,MTOT,_tmdirection(%j_component%)
    *endif
*enddo
/gopr
! ****** Begin Command Snippet ******
!   Commands inserted into this file will be executed immediately after the ANSYS /POST1 command.

!   Active UNIT system in Workbench when this object was created:  Metric (m, kg, N, s, V, A)
!   NOTE:  Any data that requires units (such as mass) is assumed to be in the consistent solver unit system.
!                See Solving Units in the help system for more information.


/POST1

cmsel,s,Force_Input
*get, n_in, node,, num, max
*dim, in_arr, array, 1, 2
in_arr(1,1) = n_in
in_arr(1,2) = 3

*dim, out_arr, array, 3, 2

cmsel,s,Sensor_1
*get, n_s1, node,, num, max
out_arr(1,1) = n_s1
out_arr(1,2) = 3

cmsel,s,Sensor_2
*get, n_s2, node,, num, max
out_arr(2,1) = n_s2
out_arr(2,2) = 3

cmsel,s,Sensor_3
*get, n_s3, node,, num, max
out_arr(3,1) = n_s3
out_arr(3,2) = 3

alls

spmwrite, MODAL, , in_arr, , out_arr, , , 1, 2


! ****** End   Command Snippet ******
xmlo,ENCODING,ISO-8859-1
xmlo,parm
/xml,parm,xml
fini
/gopr
*get,_walldone,active,,time,wall
_preptime=(_wallbsol-_wallstrt)*3600
_solvtime=(_wallasol-_wallbsol)*3600
_posttime=(_walldone-_wallasol)*3600
_totaltim=(_walldone-_wallstrt)*3600
*get,_dlbratio,active,0,solu,dlbr
*get,_combtime,active,0,solu,comb
*get,_ssmode,active,0,solu,ssmm
*get,_ndofs,active,0,solu,ndof
/fclean				!clean distributed files
/com,--- Total number of nodes = %_numnode%
/com,--- Total number of elements = %_numelem%
/com,--- Element load balance ratio = %_dlbratio%
/com,--- Time to combine distributed files = %_combtime%
/com,--- Sparse memory mode = %_ssmode%
/com,--- Number of DOF = %_ndofs%
/wb,file,end               ! done with WB generated input
